40
	Energy:    -141.6624436
C         -0.22182       -2.49273        1.76889
C          0.78472       -2.10276        2.83257
H         -0.49989       -3.54085        1.94290
H         -1.12848       -1.89997        1.94808
C          2.01137       -1.58561        2.63692
H          2.41740       -1.38379        1.65256
H          2.66725       -1.33343        3.46669
C          0.25865       -2.36051        4.22099
O         -0.84083       -2.85880        4.41243
O          1.13440       -1.99544        5.19250
C          0.66461       -2.29215        6.52107
C          1.73292       -1.92840        7.54371
H          0.43593       -3.36270        6.59679
H         -0.25349       -1.72862        6.72399
O          1.41562       -2.49279        8.80388
H          1.85153       -0.84054        7.60557
H          2.70293       -2.32951        7.23129
P          0.85394       -1.48878        9.93519
O          1.96351       -0.59862       10.42895
O         -0.47296       -0.91785        9.52070
O          0.57038       -2.56696       11.11918
C         -0.06903       -2.03970       12.26727
C          0.92287       -1.25390       13.13453
H         -0.46578       -2.89529       12.82059
H         -0.92226       -1.42623       11.96640
N          0.30251       -0.65134       14.43080
H          1.36264       -0.40663       12.60827
H          1.74245       -1.91193       13.44933
C          1.43562        0.01572       15.20311
H          1.88630        0.78791       14.57287
H          2.17406       -0.74764       15.46658
H          1.01869        0.46369       16.11084
C         -0.33106       -1.71794       15.29643
H         -1.20389       -2.12758       14.78219
H         -0.64694       -1.25636       16.23751
H          0.41073       -2.49869       15.48783
C         -0.72065        0.41290       14.05461
H         -0.24455        1.13847       13.38902
H         -1.05434        0.90356       14.97450
H         -1.57250       -0.06659       13.56733
